$# LS-DYNA Keyword file created by LS-PrePost(R) V4.8.25 - 04Jan2022
$# Created on Jul-15-2022 (14:24:30)
*KEYWORD
*TITLE
$#                                                                         title
LS-DYNA keyword deck by LS-PrePost
*BOUNDARY_SPC_SET
$#    nsid       cid      dofx      dofy      dofz     dofrx     dofry     dofrz
   5000000         0         1         1         1         0         0         0
*SET_NODE_LIST_TITLE
FixedBottom
$#     sid       da1       da2       da3       da4    solver      
   5000000       0.0       0.0       0.0       0.0MECH
$#    nid1      nid2      nid3      nid4      nid5      nid6      nid7      nid8
   5000000   5000038   5000076   5000114   5000152   5000190   5000228   5000266
   5000304   5000342   5000380   5000418   5000456   5001434   5001435   5001436
   5001437   5001438   5001439   5001440   5001441   5001442   5001443   5001444
   5001445   5001446   5001447   5001448   5001449   5001450   5001451   5001452
   5001453   5001454   5001455   5001456   5001457   5001458   5001459   5001460
   5001461   5001462   5001463   5001464   5001465   5001466   5001467   5001468
   5001469   5001470   5001471   5001472   5001473   5001474   5001475   5001476
   5001477   5001478   5001479   5001480   5001481   5001482   5001483   5001484
   5001485   5001486   5001487   5001488   5001489   5001490   5001491   5001492
   5001493   5001494   5001495   5001496   5001497   5001498   5001499   5001500
   5001501   5001502   5001503   5001504   5001505   5001506   5001507   5001508
   5001509   5001510   5001511   5001512   5001513   5001514   5001515   5001516
   5001517   5001518   5001519   5001520   5001521   5001522   5001523   5001524
   5001525   5001526   5001527   5001528   5001529         0         0         0
*BOUNDARY_SPC_SET
$#    nsid       cid      dofx      dofy      dofz     dofrx     dofry     dofrz
   5000001         0         1         1         1         0         0         0
*SET_NODE_LIST_TITLE
FixedTop
$#     sid       da1       da2       da3       da4    solver      
   5000001       0.0       0.0       0.0       0.0MECH
$#    nid1      nid2      nid3      nid4      nid5      nid6      nid7      nid8
   5000037   5000075   5000113   5000151   5000189   5000227   5000265   5000303
   5000341   5000379   5000417   5000455   5000493   5000494   5000495   5000496
   5000497   5000498   5000499   5000500   5006514   5006515   5006516   5006517
   5006518   5006519   5006520   5006521   5006522   5006523   5006524   5006525
   5006526   5006527   5006528   5006529   5006530   5006531   5006532   5006533
   5006534   5006535   5006536   5006537   5006538   5006539   5006540   5006541
   5006542   5006543   5006544   5006545   5006546   5006547   5006548   5006549
   5006550   5006551   5006552   5006553   5006554   5006555   5006556   5006557
   5006558   5006559   5006560   5006561   5006562   5006563   5006564   5006565
   5006566   5006567   5006568   5006569   5006570   5006571   5006572   5006573
   5006574   5006575   5006576   5006577   5006578   5006579   5006580   5006581
   5006582   5006583   5006584   5006585   5006586   5006587   5006588   5006589
   5006590   5006591   5006592   5006593   5006594   5006595   5006596   5006597
   5006598   5006599   5006600   5006601   5006602         0         0         0
*PART
$#                                                                         title

$#     pid     secid       mid     eosid      hgid      grav    adpopt      tmid
   5000000   5000000   5000001         0         0         0         0         0
*SECTION_BEAM_TITLE
Longitudinal
$#   secid    elform      shrf   qr/irid       cst     scoor       nsm     naupd
   5000000         1       1.0         2         1       0.0       0.0         0
$#     ts1       ts2       tt1       tt2     nsloc     ntloc     
      25.4      25.4       0.0       0.0       0.0       0.0
*MAT_SIMPLIFIED_JOHNSON_COOK_TITLE
Steel
$#     mid        ro         e        pr        vp  
   50000017.83000E-9  207000.0       0.3       0.0
$#       a         b         n         c    psfail    sigmax    sigsat      epso
  468.8999    1201.8    0.7094     0.0341.00000E171.00000E281.00000E28       1.0
*PART
$#                                                                         title

$#     pid     secid       mid     eosid      hgid      grav    adpopt      tmid
   5000001   5000001   5000001         0         0         0         0         0
*SECTION_BEAM_TITLE
Spiral
$#   secid    elform      shrf   qr/irid       cst     scoor       nsm     naupd
   5000001         1       1.0         2         1       0.0       0.0         0
$#     ts1       ts2       tt1       tt2     nsloc     ntloc     
     9.525     9.525       0.0       0.0       0.0       0.0
*PART
$#                                                                         title
ConcreteColumn
$#     pid     secid       mid     eosid      hgid      grav    adpopt      tmid
   5000002   5000002   5000000         0         0         0         0         0
*SECTION_SOLID_TITLE
Column
$#   secid    elform       aet    unused    unused    unused    cohoff    unused
   5000002         1         0                                       0          
*MAT_CONCRETE_DAMAGE_REL3_TITLE
Concrete
$#     mid        ro        pr  
   50000002.43000E-9       0.0
$#      ft        a0        a1        a2        b1     omega       a1f   
       0.0    -27.58       0.0       0.0       0.0       0.0       0.0
$# slambda      nout     edrop     rsize       ucf    lcrate  locwidth      npts
       0.0       0.0       0.0    0.0394     145.0         0       0.0       0.0
$# lambda1   lambda2   lambda3   lambda4   lambda5   lambda6   lambda7   lambda8
       0.0       0.0       0.0       0.0       0.0       0.0       0.0       0.0
$#lambda09  lambda10  lambda11  lambda12  lambda13        b3       a0y       a1y
       0.0       0.0       0.0       0.0       0.0       0.0       0.0       0.0
$#    eta1      eta2      eta3      eta4      eta5      eta6      eta7      eta8
       0.0       0.0       0.0       0.0       0.0       0.0       0.0       0.0
$#   eta09     eta10     eta11     eta12     eta13        b2       a2f       a2y
       0.0       0.0       0.0       0.0       0.0       0.0       0.0       0.0
*CONSTRAINED_LAGRANGE_IN_SOLID_TITLE
$#  coupid                                                                 title
         1Steel and Concrete
$#   slave    master     sstyp     mstyp     nquad     ctype     direc     mcoup
   5000000   5000002         0         1         0         2         1         0
$#   start       end      pfac      fric    frcmin      norm   normtyp      damp
       0.01.00000E10       0.1       0.0       0.5         0         0       0.0
$#      cq      hmin      hmax     ileak     pleak   lcidpor     nvent  blockage
       0.0       0.0       0.0         0       0.1         0         0         0
$#  iboxid   ipenchk   intforc   ialesof    lagmul    pfacmm      thkf    
         0         0         0         0       0.0         0       0.0
*ELEMENT_SOLID
$#   eid     pid      n1      n2      n3      n4      n5      n6      n7      n8
 5001427 5000002 5001469 5001441 5001471 5001470 5001558 5001530 5001560 5001559
 5001428 5000002 5001468 5001469 5001470 5001472 5001557 5001558 5001559 5001561
 5001429 5000002 5001441 5001442 5001473 5001471 5001530 5001531 5001562 5001560
 5001430 5000002 5001442 5001443 5001474 5001473 5001531 5001532 5001563 5001562
 5001431 5000002 5001443 5001444 5001475 5001474 5001532 5001533 5001564 5001563
 5001432 5000002 5001444 5001445 5001476 5001475 5001533 5001534 5001565 5001564
 5001433 5000002 5001445 5001446 5001477 5001476 5001534 5001535 5001566 5001565
 5001434 5000002 5001446 5001447 5001478 5001477 5001535 5001536 5001567 5001566
 5001435 5000002 5001447 5001448 5001479 5001478 5001536 5001537 5001568 5001567
 5001436 5000002 5001448 5001449 5001480 5001479 5001537 5001538 5001569 5001568
 5001437 5000002 5001449 5001450 5001481 5001480 5001538 5001539 5001570 5001569
 5001438 5000002 5001450 5001451 5001482 5001481 5001539 5001540 5001571 5001570
 5001439 5000002 5001451 5001452 5001483 5001482 5001540 5001541 5001572 5001571
 5001440 5000002 5001452 5001453 5001484 5001483 5001541 5001542 5001573 5001572
 5001441 5000002 5001453 5001454 5001485 5001484 5001542 5001543 5001574 5001573
 5001442 5000002 5001454 5001455 5001486 5001485 5001543 5001544 5001575 5001574
 5001443 5000002 5001455 5001456 5001487 5001486 5001544 5001545 5001576 5001575
 5001444 5000002 5001456 5001457 5001488 5001487 5001545 5001546 5001577 5001576
 5001445 5000002 5001457 5001458 5001489 5001488 5001546 5001547 5001578 5001577
 5001446 5000002 5001458 5001459 5001490 5001489 5001547 5001548 5001579 5001578
$ ... 4312 like lines cut
*ELEMENT_BEAM
$#   eid     pid      n1      n2      n3     rt1     rr1     rt2     rr2   local
 5000000 5000000 5000000 5000001       0       0       0       0       0       2
 5000001 5000000 5000001 5000002       0       0       0       0       0       2
 5000002 5000000 5000002 5000003       0       0       0       0       0       2
 5000003 5000000 5000003 5000004       0       0       0       0       0       2
 5000004 5000000 5000004 5000005       0       0       0       0       0       2
 5000005 5000000 5000005 5000006       0       0       0       0       0       2
 5000006 5000000 5000006 5000007       0       0       0       0       0       2
 5000007 5000000 5000007 5000008       0       0       0       0       0       2
 5000008 5000000 5000008 5000009       0       0       0       0       0       2
 5000009 5000000 5000009 5000010       0       0       0       0       0       2
 5000010 5000000 5000010 5000011       0       0       0       0       0       2
 5000011 5000000 5000011 5000012       0       0       0       0       0       2
 5000012 5000000 5000012 5000013       0       0       0       0       0       2
 5000013 5000000 5000013 5000014       0       0       0       0       0       2
 5000014 5000000 5000014 5000015       0       0       0       0       0       2
 5000015 5000000 5000015 5000016       0       0       0       0       0       2
 5000016 5000000 5000016 5000017       0       0       0       0       0       2
 5000017 5000000 5000017 5000018       0       0       0       0       0       2
 5000018 5000000 5000018 5000019       0       0       0       0       0       2
 5000019 5000000 5000019 5000020       0       0       0       0       0       2
$ ... 1407 like lines cut
*NODE
$#   nid               x               y               z      tc      rc  
 5000000       -182.9615         348.604             0.0       0       0
 5000001       -182.9615         348.604           152.4       0       0
 5000002       -182.9615         348.604           304.8       0       0
 5000003       -182.9615         348.604           457.2       0       0
 5000004       -182.9615         348.604           609.6       0       0
 5000005       -182.9615         348.604           762.0       0       0
 5000006       -182.9615         348.604           914.4       0       0
 5000007       -182.9615         348.604          1066.8       0       0
 5000008       -182.9615         348.604          1219.2       0       0
 5000009       -182.9615         348.604          1371.6       0       0
 5000010       -182.9615         348.604          1524.0       0       0
 5000011       -182.9615         348.604          1676.4       0       0
 5000012       -182.9615         348.604          1828.8       0       0
 5000013       -182.9615         348.604          1981.2       0       0
 5000014       -182.9615         348.604          2133.6       0       0
 5000015       -182.9615         348.604          2286.0       0       0
 5000016       -182.9615         348.604          2438.4       0       0
 5000017       -182.9615         348.604          2590.8       0       0
 5000018       -182.9615         348.604          2743.2       0       0
 5000019       -182.9615         348.604          2895.6       0       0
$ ... 6583 like lines cut
*SET_PART_LIST_TITLE
Reinforcement
$#     sid       da1       da2       da3       da4    solver      
   5000000       0.0       0.0       0.0       0.0MECH
$#    pid1      pid2      pid3      pid4      pid5      pid6      pid7      pid8
   5000000   5000001         0         0         0         0         0         0
*SET_PART_LIST_TITLE
All Column
$#     sid       da1       da2       da3       da4    solver      
   5000002       0.0       0.0       0.0       0.0MECH
$#    pid1      pid2      pid3      pid4      pid5      pid6      pid7      pid8
   5000000   5000001   5000002         0         0         0         0         0
*END
