$# LS-DYNA Keyword file created by LS-PrePost(R) V4.7.23 -28Sep2021
$# Created on Jul-25-2022 (21:17:02)
*KEYWORD
*TITLE
$#                                                                         title
PierSystemProvidedByKDOT
*BOUNDARY_SPC_SET_ID
$#      id                                                               heading
         0FixingPierBase
$#    nsid       cid      dofx      dofy      dofz     dofrx     dofry     dofrz
   5000000         0         1         1         1         0         0         0
*SET_NODE_LIST_TITLE
FixedBase
$#     sid       da1       da2       da3       da4    solver      
   5000000       0.0       0.0       0.0       0.0MECH
$#    nid1      nid2      nid3      nid4      nid5      nid6      nid7      nid8
   5000001   5000032   5000033   5000034   5000035   5000036   5000037   5000038
   5000039   5000040   5000041   5000042   5000043   5000044   5000045   5000046
   5000047   5000048   5000049   5000050   5000051   5000052   5000053   5000054
   5000055   5000056   5000057   5000058   5000059   5000060   5000061   5001333
   5001334   5001335   5001336   5001337   5001338   5001339   5001340   5001341
   5001342   5001343   5001344   5001345   5001346   5001347   5001348   5001349
   5001350   5001351   5001352   5001353   5001354   5001355   5001356   5001357
   5001358   5001359   5001360   5001361   5001362   5001363   5001364   5001365
   5001366   5001367   5001368   5001369   5001370   5001371   5001372   5001373
   5001374   5001375   5001376   5001377   5001378   5001379   5001380   5001381
   5001382   5001383   5001384   5001385   5001386   5001387   5001388   5001389
   5001390   5001391   5001392   5001393   5001394   5001395   5001396   5001397
   5001398   5001399   5001400   5001401   5001402   5001403   5004386   5004437
   5004488   5004539   5004590   5004641   5004692   5004743   5004794   5004845
   5004896   5004947   5004998   5005049   5005100   5005151   5005202   5005253
   5005304   5005355   5005407   5005438   5005439   5005440   5005441   5005442
   5005443   5005444   5005445   5005446   5005447   5005448   5005449   5005450
   5005451   5005452   5005453   5005454   5005455   5005456   5005457   5005458
   5005459   5005460   5005461   5005462   5005463   5005464   5005465   5005466
   5005467   5006739   5006740   5006741   5006742   5006743   5006744   5006745
$ ... 27 like lines cut
*BOUNDARY_SPC_SET
$#    nsid       cid      dofx      dofy      dofz     dofrx     dofry     dofrz
   5000001         0         0         1         0         0         0         0
*SET_NODE_LIST
$#     sid       da1       da2       da3       da4    solver      
   5000001       0.0       0.0       0.0       0.0MECH
$#    nid1      nid2      nid3      nid4      nid5      nid6      nid7      nid8
   5020426   5019272   5020524   5020475   5020377   5020328   5020279   5019217
*BOUNDARY_SPC_SET
$#    nsid       cid      dofx      dofy      dofz     dofrx     dofry     dofrz
   5000002         0         1         1         1         1         1         1
*SET_NODE_LIST_TITLE
NODESET(SPC) 3
$#     sid       da1       da2       da3       da4    solver      
   5000002       0.0       0.0       0.0       0.0MECH
$#    nid1      nid2      nid3      nid4      nid5      nid6      nid7      nid8
   5026169   5026170   5026171   5026172   5026173   5026174   5026175   5026176
   5026177   5026178   5026179   5026180   5026181   5026182   5026183   5026184
   5026185   5026186   5026187   5026188   5026189   5026190   5026191   5026192
   5026193   5026194   5026195   5026196   5026197   5026198   5026199   5026200
   5026201   5026202   5026203   5026204   5026205   5026206   5026207   5026208
   5026209   5026210   5026211   5026212   5026213   5026214   5026215   5026216
   5026217   5026218   5026219   5026220   5026221   5026222   5026223   5026224
*BOUNDARY_SPC_SET
$#    nsid       cid      dofx      dofy      dofz     dofrx     dofry     dofrz
   5000003         0         1         1         1         1         1         1
*SET_NODE_LIST_TITLE
NODESET(SPC) 4
$#     sid       da1       da2       da3       da4    solver      
   5000003       0.0       0.0       0.0       0.0MECH
$#    nid1      nid2      nid3      nid4      nid5      nid6      nid7      nid8
   5026225   5026226   5026227   5026228   5026231   5026232   5026229   5026230
*DEFINE_CURVE_TITLE
PierBeamLoad
$#    lcid      sidr       sfa       sfo      offa      offo    dattyp     lcint
   5000000         0       1.0       1.0       0.0       0.0         0         0
$#                a1                  o1  
                 0.0             2292.64
                 1.0             2292.64
                 2.0             2292.64
*CONSTRAINED_LAGRANGE_IN_SOLID_TITLE
$#  coupid                                                                 title
         1SteelAndConcreteOfPierColumn
$#   slave    master     sstyp     mstyp     nquad     ctype     direc     mcoup
   5000000   5000000         0         1         0         2         1         0
$#   start       end      pfac      fric    frcmin      norm   normtyp      damp
       0.01.00000E10       0.1       0.0       0.5         0         0       0.0
$#      cq      hmin      hmax     ileak     pleak   lcidpor     nvent  blockage
       0.0       0.0       0.0         0       0.1         0         0         0
*CONSTRAINED_LAGRANGE_IN_SOLID_TITLE
$#  coupid                                                                 title
         2SteelAndConcreteOfPierBeam
$#   slave    master     sstyp     mstyp     nquad     ctype     direc     mcoup
   5000001   5000006         0         1         0         2         1         0
$#   start       end      pfac      fric    frcmin      norm   normtyp      damp
       0.01.00000E10       0.1       0.0       0.5         0         0       0.0
$#      cq      hmin      hmax     ileak     pleak   lcidpor     nvent  blockage
       0.0       0.0       0.0         0       0.1         0         0         0
*ELEMENT_SOLID
$#   eid     pid      n1      n2      n3      n4      n5      n6      n7      n8
 5009458 5000000 5001440 5001427 5002254 5004304 5001428 5001428 5002295 5002295
 5009459 5000000 5004304 5002254 5002255 5004305 5002295 5002295 5002296 5002296
 5009460 5000000 5004305 5002255 5002256 5004306 5002296 5002296 5002297 5002297
 5009461 5000000 5004306 5002256 5002257 5004307 5002297 5002297 5002298 5002298
 5009462 5000000 5004307 5002257 5002258 5004308 5002298 5002298 5002299 5002299
 5009463 5000000 5004308 5002258 5002259 5004309 5002299 5002299 5002300 5002300
 5009464 5000000 5004309 5002259 5002260 5004310 5002300 5002300 5002301 5002301
 5009465 5000000 5004310 5002260 5002261 5004311 5002301 5002301 5002302 5002302
 5009466 5000000 5004311 5002261 5002262 5004312 5002302 5002302 5002303 5002303
 5009467 5000000 5004312 5002262 5002263 5004313 5002303 5002303 5002304 5002304
 5009468 5000000 5004313 5002263 5002264 5004314 5002304 5002304 5002305 5002305
 5009469 5000000 5004314 5002264 5002265 5004315 5002305 5002305 5002306 5002306
 5009470 5000000 5004315 5002265 5002266 5004316 5002306 5002306 5002307 5002307
 5009471 5000000 5004316 5002266 5002267 5004317 5002307 5002307 5002308 5002308
 5009472 5000000 5004317 5002267 5002268 5004318 5002308 5002308 5002309 5002309
 5009473 5000000 5004318 5002268 5002269 5004319 5002309 5002309 5002310 5002310
 5009474 5000000 5004319 5002269 5002270 5004320 5002310 5002310 5002311 5002311
 5009475 5000000 5004320 5002270 5002271 5004321 5002311 5002311 5002312 5002312
 5009476 5000000 5004321 5002271 5002272 5004322 5002312 5002312 5002313 5002313
 5009477 5000000 5004322 5002272 5002273 5004323 5002313 5002313 5002314 5002314
$ ... 13168 like lines cut
*ELEMENT_BEAM
$#   eid     pid      n1      n2      n3     rt1     rr1     rt2     rr2   local
 5000000 5000001 5004386 5004387       0       0       0       0       0       2
 5000001 5000001 5004387 5004388       0       0       0       0       0       2
 5000002 5000001 5004388 5004389       0       0       0       0       0       2
 5000003 5000001 5004389 5004390       0       0       0       0       0       2
 5000004 5000001 5004390 5004391       0       0       0       0       0       2
 5000005 5000001 5004391 5004392       0       0       0       0       0       2
 5000006 5000001 5004392 5004393       0       0       0       0       0       2
 5000007 5000001 5004393 5004394       0       0       0       0       0       2
 5000008 5000001 5004394 5004395       0       0       0       0       0       2
 5000009 5000001 5004395 5004396       0       0       0       0       0       2
 5000010 5000001 5004396 5004397       0       0       0       0       0       2
 5000011 5000001 5004397 5004398       0       0       0       0       0       2
 5000012 5000001 5004398 5004399       0       0       0       0       0       2
 5000013 5000001 5004399 5004400       0       0       0       0       0       2
 5000014 5000001 5004400 5004401       0       0       0       0       0       2
 5000015 5000001 5004401 5004402       0       0       0       0       0       2
 5000016 5000001 5004402 5004403       0       0       0       0       0       2
 5000017 5000001 5004403 5004404       0       0       0       0       0       2
 5000018 5000001 5004404 5004405       0       0       0       0       0       2
 5000019 5000001 5004405 5004406       0       0       0       0       0       2
$ ... 9438 like lines cut
*ELEMENT_DISCRETE
$#   eid     pid      n1      n2     vid               s      pf          offset
 5022646 5000008 5019168 5026170       0             1.0       0             0.0
 5022647 5000008 5019247 5026178       0             1.0       0             0.0
 5022648 5000008 5019246 5026177       0             1.0       0             0.0
 5022649 5000008 5019245 5026176       0             1.0       0             0.0
 5022650 5000008 5019244 5026175       0             1.0       0             0.0
 5022651 5000008 5019243 5026174       0             1.0       0             0.0
 5022652 5000008 5019242 5026173       0             1.0       0             0.0
 5022653 5000008 5019167 5026169       0             1.0       0             0.0
 5022654 5000008 5019406 5026190       0             1.0       0             0.0
 5022655 5000008 5019686 5026195       0             1.0       0             0.0
 5022656 5000008 5019689 5026198       0             1.0       0             0.0
 5022657 5000008 5019692 5026201       0             1.0       0             0.0
 5022658 5000008 5019694 5026203       0             1.0       0             0.0
 5022659 5000008 5019691 5026200       0             1.0       0             0.0
 5022660 5000008 5019688 5026197       0             1.0       0             0.0
 5022661 5000008 5019346 5026179       0             1.0       0             0.0
 5022662 5000008 5019407 5026191       0             1.0       0             0.0
 5022663 5000008 5019703 5026212       0             1.0       0             0.0
 5022664 5000008 5019708 5026217       0             1.0       0             0.0
 5022665 5000008 5019709 5026218       0             1.0       0             0.0
$ ... 44 like lines cut
*SECTION_SOLID_TITLE
PierColumn
$#   secid    elform       aet   
   5000000         3         0
*SECTION_SOLID_TITLE
PierBeam
$#   secid    elform       aet   
   5000001         3         0
*SECTION_BEAM_TITLE
PierColumnLongitudinalSteel
$#   secid    elform      shrf   qr/irid       cst     scoor       nsm     naupd
   5000002         1       1.0         2         1       0.0       0.0         0
$#     ts1       ts2       tt1       tt2     nsloc     ntloc     
     32.25     32.25       0.0       0.0       0.0       0.0
*SECTION_BEAM_TITLE
PierColumnSpiral
$#   secid    elform      shrf   qr/irid       cst     scoor       nsm     naupd
   5000003         1       1.0         2         1       0.0       0.0         0
$#     ts1       ts2       tt1       tt2     nsloc     ntloc     
     9.524     9.524       0.0       0.0       0.0       0.0
*SECTION_BEAM_TITLE
PierBeamStirrups
$#   secid    elform      shrf   qr/irid       cst     scoor       nsm     naupd
   5000004         1       1.0         2         1       0.0       0.0         0
$#     ts1       ts2       tt1       tt2     nsloc     ntloc     
    15.877    15.877       0.0       0.0       0.0       0.0
*SECTION_BEAM_TITLE
PierBeamMainRebar
$#   secid    elform      shrf   qr/irid       cst     scoor       nsm     naupd
   5000005         1       1.0         2         1       0.0       0.0         0
$#     ts1       ts2       tt1       tt2     nsloc     ntloc     
     32.25     32.25       0.0       0.0       0.0       0.0
*SECTION_BEAM_TITLE
PierBeamSideRebar
$#   secid    elform      shrf   qr/irid       cst     scoor       nsm     naupd
   5000006         1       1.0         2         1       0.0       0.0         0
$#     ts1       ts2       tt1       tt2     nsloc     ntloc     
     19.05     19.05       0.0       0.0       0.0       0.0
*SECTION_DISCRETE_TITLE
Translational
$#   secid       dro        kd        v0        cl        fd  
   5000007         0       0.0       0.0       0.0       0.0
$#     cdl       tdl   
       0.0       0.0
*SECTION_DISCRETE_TITLE
Rotational
$#   secid       dro        kd        v0        cl        fd  
   5000008         1       0.0       0.0       0.0       0.0
$#     cdl       tdl   
       0.0       0.0
*LOAD_NODE_SET
$#    nsid       dof      lcid        sf       cid        m1        m2        m3
   5000004         3   5000000      -1.0         0         0         0         0
*MAT_CONCRETE_DAMAGE_REL3_TITLE
Concrete
$#     mid        ro        pr  
   50000002.43000E-9       0.0
$#      ft        a0        a1        a2        b1     omega       a1f   
       0.0    -27.58       0.0       0.0       0.0       0.0       0.0
$# slambda      nout     edrop     rsize       ucf    lcrate  locwidth      npts
       0.0       0.0       0.0    0.0394     145.0         0       0.0       0.0
$# lambda1   lambda2   lambda3   lambda4   lambda5   lambda6   lambda7   lambda8
       0.0       0.0       0.0       0.0       0.0       0.0       0.0       0.0
$#lambda09  lambda10  lambda11  lambda12  lambda13        b3       a0y       a1y
       0.0       0.0       0.0       0.0       0.0       0.0       0.0       0.0
$#    eta1      eta2      eta3      eta4      eta5      eta6      eta7      eta8
       0.0       0.0       0.0       0.0       0.0       0.0       0.0       0.0
$#   eta09     eta10     eta11     eta12     eta13        b2       a2f       a2y
       0.0       0.0       0.0       0.0       0.0       0.0       0.0       0.0
*MAT_SIMPLIFIED_JOHNSON_COOK_TITLE
Steel
$#     mid        ro         e        pr        vp  
   50000017.83000E-9  207000.0       0.3       0.0
$#       a         b         n         c    psfail    sigmax    sigsat      epso
  468.8999    1201.8    0.7094     0.0341.00000E171.00000E281.00000E28       1.0
*MAT_SPRING_ELASTIC_TITLE
Translational Spring
$#     mid         k 
   5000002     893.0
*MAT_SPRING_ELASTIC_TITLE
Rotational Spring
$#     mid         k 
   50000032.79000E13
*NODE
$#   nid               x               y               z      tc      rc  
 5000000           686.0    9.335582e-13          5257.8       0       0
 5000001           686.0             0.0             0.0       0       0
 5000002         673.521        122.7116          5257.8       0       0
 5000003        636.5969        240.3993          5257.8       0       0
 5000004        576.7371        348.2451          5257.8       0       0
 5000005         496.394        441.8337          5257.8       0       0
 5000006         398.856        517.3336          5257.8       0       0
 5000007        288.1169        571.6537          5257.8       0       0
 5000008          168.71        602.5703          5257.8       0       0
 5000009        45.52405        608.8176          5257.8       0       0
 5000010       -76.39795        590.1398          5257.8       0       0
 5000011        -192.064        547.3016          5257.8       0       0
 5000012         -296.74        482.0569          5257.8       0       0
 5000013        -386.139        397.0767          5257.8       0       0
 5000014       -456.6021        295.8401          5257.8       0       0
 5000015        -505.243        182.4918          5257.8       0       0
 5000016        -530.072        61.67221          5257.8       0       0
 5000017        -530.072       -61.67221          5257.8       0       0
 5000018        -505.243       -182.4918          5257.8       0       0
 5000019       -456.6021       -295.8401          5257.8       0       0
$ ... 25605 like lines cut
*PART
$#                                                                         title
PierColumnConcrete
$#     pid     secid       mid     eosid      hgid      grav    adpopt      tmid
   5000000   5000000   5000000         0         0         0         0         0
*PART
$#                                                                         title
PierColumnLongitudinalReinforcement
$#     pid     secid       mid     eosid      hgid      grav    adpopt      tmid
   5000001   5000002   5000001         0         0         0         0         0
*PART
$#                                                                         title
PierColumnSpiral
$#     pid     secid       mid     eosid      hgid      grav    adpopt      tmid
   5000002   5000003   5000001         0         0         0         0         0
*PART
$#                                                                         title
PierBeamStirrup1
$#     pid     secid       mid     eosid      hgid      grav    adpopt      tmid
   5000003   5000004   5000001         0         0         0         0         0
*PART
$#                                                                         title
PierBeamStirrup2
$#     pid     secid       mid     eosid      hgid      grav    adpopt      tmid
   5000004   5000004   5000001         0         0         0         0         0
*PART
$#                                                                         title
PierBeamMainLongitudinalReinforcement
$#     pid     secid       mid     eosid      hgid      grav    adpopt      tmid
   5000005   5000005   5000001         0         0         0         0         0
*PART
$#                                                                         title
PierBeamConcrete
$#     pid     secid       mid     eosid      hgid      grav    adpopt      tmid
   5000006   5000001   5000000         0         0         0         0         0
*PART
$#                                                                         title
PierBeamMiddleLongitudinalReinforcement
$#     pid     secid       mid     eosid      hgid      grav    adpopt      tmid
   5000007   5000006   5000001         0         0         0         0         0
*PART
$#                                                                         title
TranslationalSpring
$#     pid     secid       mid     eosid      hgid      grav    adpopt      tmid
   5000008   5000007   5000002         0         0         0         0         0
*PART
$#                                                                         title
RotationalSpring
$#     pid     secid       mid     eosid      hgid      grav    adpopt      tmid
   5000009   5000008   5000003         0         0         0         0         0
*SET_NODE_LIST_TITLE
PierBeamLoad
$#     sid       da1       da2       da3       da4    solver      
   5000004       0.0       0.0       0.0       0.0MECH
$#    nid1      nid2      nid3      nid4      nid5      nid6      nid7      nid8
   5019406   5020010   5019296   5019168   5020011   5019295   5020012   5019294
   5020013   5019293   5020014   5019292   5020015   5019291   5020016   5019290
   5020017   5019289   5020018   5019288   5020019   5019287   5020020   5019286
   5020021   5019285   5020022   5019284   5020023   5019283   5020024   5019282
   5020025   5019281   5020026   5019280   5020027   5019279   5020028   5019278
   5020029   5019277   5020030   5019276   5020031   5019275   5020032   5019274
   5020033   5019273   5020034   5019272   5020035   5019271   5020036   5019270
   5020037   5019269   5020038   5019268   5020039   5019267   5020040   5019266
   5020041   5019265   5020042   5019264   5020043   5019263   5020044   5019262
   5020045   5019261   5020046   5019260   5020047   5019259   5020048   5019258
   5020049   5019257   5020050   5019256   5020051   5019255   5020052   5019254
   5020053   5019253   5020054   5019252   5020055   5019251   5020056   5019250
   5020057   5019249   5020058   5019248   5019177   5019164   5019170   5019405
   5020206   5019410   5019404   5020207   5019403   5020208   5019402   5020209
   5019401   5020210   5019400   5020211   5019399   5020212   5019398   5020213
   5019397   5020214   5019396   5020215   5019395   5020216   5019394   5020217
   5019393   5020218   5019392   5020219   5019391   5020220   5019390   5020221
   5019389   5020222   5019388   5020223   5019387   5020224   5019386   5020225
   5019385   5020226   5019384   5020227   5019383   5020228   5019382   5020229
   5019381   5020230   5019380   5020231   5019379   5020232   5019378   5020233
$ ... 25 like lines cut
*SET_PART_LIST_TITLE
PierColumnReinforcement
$#     sid       da1       da2       da3       da4    solver      
   5000000       0.0       0.0       0.0       0.0MECH
$#    pid1      pid2      pid3      pid4      pid5      pid6      pid7      pid8
   5000001   5000002         0         0         0         0         0         0
*SET_PART_LIST_TITLE
PierBeamReinforcement
$#     sid       da1       da2       da3       da4    solver      
   5000001       0.0       0.0       0.0       0.0MECH
$#    pid1      pid2      pid3      pid4      pid5      pid6      pid7      pid8
   5000001   5000003   5000004   5000005   5000007         0         0         0
*SET_PART_LIST_TITLE
AllPierSystem
$#     sid       da1       da2       da3       da4    solver      
   5000002       0.0       0.0       0.0       0.0MECH
$#    pid1      pid2      pid3      pid4      pid5      pid6      pid7      pid8
   5000000   5000001   5000002   5000003   5000004   5000005   5000006   5000007
*END
