$# LS-PrePost command file created by LS-PrePost(R) V4.8.25 - 04Jan2022 -64bit-Window
$# Created on Oct-28-2022 (09:13:06)
openc keyword "G:\Other computers\My Office Computer\LS-DYNA\2-Column\03PierSystemCase1.k"
