bgstyle fade
"G:\Other computers\My Office Computer\LS-DYNA\2-Column\03PierSystemCase1.k"
Time to read keyword file = 0.188 seconds
Time to process element data = 0.062 seconds
Finished reading model
Save Config. parameters to file C:\Users\salah\AppData\Roaming\LSTC\LS-PrePost4.8\lsppconf
