bgstyle plain
C:\Users\salah\Desktop\home\salahatf\LS-DYNA\3-SUT\1-Original_Model\f800_05-1025.k"
Time to read keyword file = 0.188 seconds
Warning -Duplicate keyword: CNST_NODAL_RIGID input with ID=2001731 
  Warning occurs in file C:\Users\salah\Desktop\home\salahatf\LS-DYNA\3-SUT\1-Original_Model\f800_05-1025.k
Last one will be used
Warning -Duplicate keyword: CNST_NODAL_RIGID input with ID=2001732 
  Warning occurs in file C:\Users\salah\Desktop\home\salahatf\LS-DYNA\3-SUT\1-Original_Model\f800_05-1025.k
Last one will be used
Time to process element data = 0.062 seconds
Finished reading model
measure select 1
measure type 13
measure activeonly on
measure axes set 1
measure inertia all 0 0
Mass=8.13792, CG: x=-3952.83 y=-10.5039 z=1281.94
Inertia about center of mass:
Ixx=7.74533e+06, Ixy=107874, Ixz=2.7853e+06
Iyy=3.98984e+07, Iyz=-39309.1, Izz=3.98604e+07
I11=4.01045e+07, I22=3.98944e+07, I33=7.50517e+06
measure select 0
Save Config. parameters to file C:\Users\salah\AppData\Roaming\LSTC\LS-PrePost4.8\lsppconf
