$# LS-PrePost command file created by LS-PrePost(R) V4.7.23 -28Sep2021 -64bit-Window
$# Created on Sep-15-2022 (21:07:07)
openc keyword "D:\LS-DYNA\5-Contact_and_Control\04aSUT-Barrier_Contact.k"
Message 1
Message 0
