$# LS-DYNA Keyword file created by LS-PrePost(R) V4.8.25 - 04Jan2022
$# Created on Feb-11-2022 (01:22:18)
*KEYWORD
*TITLE
$#                                                                         title
LS-DYNA keyword deck by LS-PrePost
*DATABASE_HISTORY_NODE_SET
$#     id1       id2       id3       id4       id5       id6       id7       id8
   4000003         0         0         0         0         0         0         0
*BOUNDARY_SPC_SET_ID
$#      id                                                               heading
   4000000FixedBottom
$#    nsid       cid      dofx      dofy      dofz     dofrx     dofry     dofrz
   4000002         0         1         1         1         1         1         1
*SET_NODE_LIST_TITLE
FixedBottom
$#     sid       da1       da2       da3       da4    solver      
   4000002       0.0       0.0       0.0       0.0MECH
$#    nid1      nid2      nid3      nid4      nid5      nid6      nid7      nid8
   4000000   4000022   4003318   4003340   4003389   4003411   4003460   4003482
   4003531   4003553   4003602   4003624   4003673   4003695   4003744   4003766
   4003815   4003837   4003886   4003908   4003957   4003979   4004028   4004050
   4004099   4004121   4004170   4004192   4004241   4004263   4004312   4004334
   4004383   4004405   4004454   4004476   4004525   4004547   4004596   4004618
   4004667   4004689   4004738   4004760   4004809   4004831   4004880   4004902
   4004951   4004973   4005022   4005044   4005093   4005115   4005164   4005186
   4005235   4005257   4005306   4005328   4005377   4005399   4005448   4005470
   4005519   4005541   4005590   4005612   4005661   4005683   4005732   4005754
   4009282   4009304   4009353   4009375   4009424   4009446   4009495   4009517
   4009566   4009588   4009637   4009659   4009708   4009730   4009779   4009801
   4009850   4009872   4009921   4009943   4009992   4010014   4010063   4010085
   4010134   4010156   4010205   4010227   4010276   4010298   4010347   4010369
   4010418   4010440   4010489   4010511   4010560   4010582   4010631   4010653
   4010702   4010724   4010773   4010795   4010844   4010866   4010915   4010937
   4010986   4011008   4011057   4011079   4011128   4011150   4011199   4011221
   4011270   4011292   4011341   4011363   4014809   4014831   4014880   4014902
   4014951   4014973   4015022   4015044   4015093   4015115   4015164   4015186
   4015235   4015257   4015306   4015328   4015377   4015399   4015448   4015470
   4015519   4015541   4015590   4015612   4015661   4015683   4015732   4015754
$ ... 5 like lines cut
*CONTACT_FORCE_TRANSDUCER_PENALTY_ID
$#     cid                                                                 title
   400000095ft
$#    ssid      msid     sstyp     mstyp    sboxid    mboxid       spr       mpr
   4000001         0         2         0         0         0         0         2
$#      fs        fd        dc        vc       vdc    penchk        bt        dt
      0.25      0.25       0.0       0.0       1.0         0       0.01.00000E20
$#     sfs       sfm       sst       mst      sfst      sfmt       fsf       vsf
       1.0       1.0       0.0       0.0       1.0       1.0       1.0       1.0
*SET_PART_LIST_TITLE
All Barrier
$#     sid       da1       da2       da3       da4    solver      
   4000001       0.0       0.0       0.0       0.0MECH
$#    pid1      pid2      pid3      pid4      pid5      pid6      pid7      pid8
   4000000   4000001   4000002   4000003         0         0         0         0
*PART
$#                                                                         title
Stirrups
$#     pid     secid       mid     eosid      hgid      grav    adpopt      tmid
   4000000   4000003   4000001         0         0         0         0         0
*SECTION_BEAM_TITLE
Stirrups No.5
$#   secid    elform      shrf   qr/irid       cst     scoor       nsm     naupd
   4000003         1       1.0         2         1       0.0       0.0         0
$#     ts1       ts2       tt1       tt2     nsloc     ntloc     
    15.877    15.877       0.0       0.0       0.0       0.0
*MAT_SIMPLIFIED_JOHNSON_COOK_TITLE
Steel
$#     mid        ro         e        pr        vp  
   40000017.83000E-9  207000.0       0.3       0.0
$#       a         b         n         c    psfail    sigmax    sigsat      epso
  468.8999    1201.8    0.7094     0.0341.00000E171.00000E281.00000E28       1.0
*PART
$#                                                                         title
No.4 Bars
$#     pid     secid       mid     eosid      hgid      grav    adpopt      tmid
   4000001   4000001   4000001         0         0         0         0         0
*SECTION_BEAM_TITLE
Bars No.4
$#   secid    elform      shrf   qr/irid       cst     scoor       nsm     naupd
   4000001         1       1.0         2         1       0.0       0.0         0
$#     ts1       ts2       tt1       tt2     nsloc     ntloc     
      12.7      12.7       0.0       0.0       0.0       0.0
*PART
$#                                                                         title
No.6 Bar
$#     pid     secid       mid     eosid      hgid      grav    adpopt      tmid
   4000002   4000002   4000001         0         0         0         0         0
*SECTION_BEAM_TITLE
Bars No.6
$#   secid    elform      shrf   qr/irid       cst     scoor       nsm     naupd
   4000002         1       1.0         2         1       0.0       0.0         0
$#     ts1       ts2       tt1       tt2     nsloc     ntloc     
     19.04     19.04       0.0       0.0       0.0       0.0
*PART
$#                                                                         title
Concrete Barrier
$#     pid     secid       mid     eosid      hgid      grav    adpopt      tmid
   4000003   4000000   4000000         0         0         0         0         0
*SECTION_SOLID_TITLE
Concrete Barrier
$#   secid    elform       aet    unused    unused    unused    cohoff    unused
   4000000         1         0                                       0          
*MAT_CSCM_CONCRETE_TITLE
Concrete Barrier
$#     mid        ro     nplot     incre     irate     erode     recov   itretrc
   40000002.40000E-9         1       0.0         0      1.05      10.0         0
$#    pred    
       0.0
$#     fpc      dagg     units     
     28.35      25.4         2
*CONSTRAINED_LAGRANGE_IN_SOLID_TITLE
$#  coupid                                                                 title
         1Steel and Concrete
$#   slave    master     sstyp     mstyp     nquad     ctype     direc     mcoup
   4000000   4000003         0         1         0         2         1         0
$#   start       end      pfac      fric    frcmin      norm   normtyp      damp
       0.01.00000E10       0.1       0.0       0.5         0         0       0.0
$#      cq      hmin      hmax     ileak     pleak   lcidpor     nvent  blockage
       0.0       0.0       0.0         0       0.1         0         0         0
*ELEMENT_SOLID
$#   eid     pid      n1      n2      n3      n4      n5      n6      n7      n8
 4008820 4000003 4000079 4000190 4000849 4000301 4002459 4002679 4002580 4002458
 4008821 4000003 4002459 4002679 4002580 4002458 4000522 4001815 4001716 4000521
 4008822 4000003 4000297 4000850 4000083 4000078 4002454 4002581 4000742 4000409
 4008823 4000003 4002454 4002581 4000742 4000409 4000517 4001717 4000302 4000080
 4008824 4000003 4000298 4000851 4000850 4000297 4002455 4002582 4002581 4002454
 4008825 4000003 4002455 4002582 4002581 4002454 4000518 4001718 4001717 4000517
 4008826 4000003 4000299 4000852 4000851 4000298 4002456 4002610 4002582 4002455
 4008827 4000003 4002456 4002610 4002582 4002455 4000519 4001746 4001718 4000518
 4008828 4000003 4000301 4000849 4000853 4000300 4002458 4002580 4002604 4002457
 4008829 4000003 4002458 4002580 4002604 4002457 4000521 4001716 4001740 4000520
 4008830 4000003 4000300 4000853 4000852 4000299 4002457 4002604 4002610 4002456
 4008831 4000003 4002457 4002604 4002610 4002456 4000520 4001740 4001746 4000519
 4008832 4000003 4000191 4000854 4000849 4000190 4002681 4002606 4002580 4002679
 4008833 4000003 4002681 4002606 4002580 4002679 4001817 4001742 4001716 4001815
 4008834 4000003 4000083 4000850 4000855 4000084 4000742 4002581 4002583 4000743
 4008835 4000003 4000742 4002581 4002583 4000743 4000302 4001717 4001719 4000303
 4008836 4000003 4000192 4000856 4000854 4000191 4002688 4002600 4002606 4002681
 4008837 4000003 4002688 4002600 4002606 4002681 4001824 4001736 4001742 4001817
 4008838 4000003 4000084 4000855 4000857 4000085 4000743 4002583 4002588 4000744
 4008839 4000003 4000743 4002583 4002588 4000744 4000303 4001719 4001724 4000304
$ ... 5200 like lines cut
*ELEMENT_BEAM
$#   eid     pid      n1      n2      n3     rt1     rr1     rt2     rr2   local
 4000000 4000000 4000000 4000001       0       0       0       0       0       2
 4000001 4000000 4000001 4000002       0       0       0       0       0       2
 4000002 4000000 4000002 4000003       0       0       0       0       0       2
 4000003 4000000 4000003 4000004       0       0       0       0       0       2
 4000004 4000000 4000004 4000005       0       0       0       0       0       2
 4000005 4000000 4000005 4000006       0       0       0       0       0       2
 4000006 4000000 4000006 4000007       0       0       0       0       0       2
 4000007 4000000 4000007 4000008       0       0       0       0       0       2
 4000008 4000000 4000008 4000009       0       0       0       0       0       2
 4000009 4000000 4000009 4000010       0       0       0       0       0       2
 4000010 4000000 4000010 4000011       0       0       0       0       0       2
 4000011 4000000 4000011 4000012       0       0       0       0       0       2
 4000012 4000000 4000012 4000013       0       0       0       0       0       2
 4000013 4000000 4000013 4000014       0       0       0       0       0       2
 4000014 4000000 4000014 4000015       0       0       0       0       0       2
 4000015 4000000 4000015 4000016       0       0       0       0       0       2
 4000016 4000000 4000016 4000017       0       0       0       0       0       2
 4000017 4000000 4000017 4000018       0       0       0       0       0       2
 4000018 4000000 4000018 4000019       0       0       0       0       0       2
 4000019 4000000 4000019 4000020       0       0       0       0       0       2
$ ... 8800 like lines cut
*NODE
$#   nid               x               y               z      tc      rc  
 4000000            46.0         -328.66             0.0       0       0
 4000001            46.0         -328.66        209.2394       0       0
 4000002            46.0         -328.66        348.7323       0       0
 4000003            46.0         -328.66        401.0421       0       0
 4000004            46.0         -328.66         403.214       0       0
 4000005            46.0        -323.219        413.6344       0       0
 4000006            46.0        -314.199        424.1441       0       0
 4000007            46.0        -303.005          432.07       0       0
 4000008            46.0        -290.803        436.9034       0       0
 4000009            46.0        -278.765        438.7473       0       0
 4000010            46.0        -264.358        437.5175       0       0
 4000011            46.0       -251.0851        432.8337       0       0
 4000012            46.0       -239.9861        425.5156       0       0
 4000013            46.0        -231.545        416.6457       0       0
 4000014            46.0        -224.677        404.9462       0       0
 4000015            46.0       -218.5651        389.5887       0       0
 4000016        46.00049        -210.464        369.1222       0       0
 4000017            46.0        -199.662        341.8334       0       0
 4000018        45.99951        -185.261        305.4484       0       0
 4000019            46.0       -163.6581        250.8709       0       0
$ ... 17634 like lines cut
*SET_NODE_LIST_TITLE
FixedRightSide
$#     sid       da1       da2       da3       da4    solver      
   4000000       0.0       0.0       0.0       0.0MECH
$#    nid1      nid2      nid3      nid4      nid5      nid6      nid7      nid8
   4000071   4000072   4000073   4000074   4000075   4000076   4000077         0
*SET_NODE_LIST_TITLE
FixedLeftSide
$#     sid       da1       da2       da3       da4    solver      
   4000001       0.0       0.0       0.0       0.0MECH
$#    nid1      nid2      nid3      nid4      nid5      nid6      nid7      nid8
   4017101   4017193   4017285   4017377   4017469   4017561   4017653         0
*SET_NODE_LIST_TITLE
DisplacementNodes
$#     sid       da1       da2       da3       da4    solver      
   4000003       0.0       0.0       0.0       0.0MECH
$#    nid1      nid2      nid3      nid4      nid5      nid6      nid7      nid8
   4000080   4000302   4000303   4000304   4000305   4000306   4000307   4000308
   4000309   4000310   4000311   4000312   4000313   4000314   4000315   4000316
   4000317   4000318   4000319   4000320   4000321   4000322   4000323   4000324
   4000325   4000326   4000327   4000328   4000329   4000330   4000331   4000332
   4000333   4000334   4000335   4000336   4000337   4000338   4000339   4000340
   4000341   4000342   4000343   4000344   4000345   4000346   4000347   4000348
   4000349   4000350   4000351   4000352   4000353   4000354   4000355   4000356
   4000357   4000358   4000359   4000360   4000361   4000362   4000363   4000364
   4000365   4000366   4000367   4000368   4000369   4000370   4000371   4000372
   4000373   4000374   4000375   4000376   4000377   4000378   4000379   4000380
   4000381   4000382   4000383   4000384   4000385   4000386   4000387   4000388
   4000389   4000390   4000391   4000392   4000393   4000394   4000395   4000396
   4000397   4000398   4000399   4000400   4000401   4000402   4000403   4000404
   4000405   4000406   4000407   4000408   4006734   4006735   4006736   4006737
   4006738   4006739   4006740   4006741   4006742   4006743   4006744   4006745
   4006746   4006747   4006748   4006749   4006750   4006751   4006752   4006753
   4006754   4006755   4006756   4006757   4006758   4006759   4006760   4006761
   4006762   4006763   4006764   4006765   4006766   4006767   4006768   4006769
   4006770   4006771   4006772   4006773   4006774   4006775   4006776   4006777
   4006778   4006779   4006780   4006781   4006782   4006783   4006784   4006785
$ ... 17 like lines cut
*SET_PART_LIST_TITLE
Reinforcement
$#     sid       da1       da2       da3       da4    solver      
   4000000       0.0       0.0       0.0       0.0MECH
$#    pid1      pid2      pid3      pid4      pid5      pid6      pid7      pid8
   4000000   4000001   4000002         0         0         0         0         0
*END
