bgstyle fade
"G:\Other computers\My Office Computer\LS-DYNA\1-Barriers\1-Fixed\02JersyBarrier45m.k"
Time to read keyword file = 0.297 seconds
Time to process element data = 0.062 seconds
Finished reading model
Save Config. parameters to file C:\Users\salah\AppData\Roaming\LSTC\LS-PrePost4.8\lsppconf
