Warning - Character label id used, which is not supported - *MAT_ELASTIC
  Warning occurs in file C:\Users\salah\Desktop\LS-DYNA\4- Tractor-Trailer\1- Original Model\15TL-5_Median_Barrier_Elastic.k line # 18706
Time to read keyword file = 2.578 seconds
Warning -Duplicate keyword: CONTROL_CONTACT 
  Warning occurs in file C:\Users\salah\Desktop\LS-DYNA\4- Tractor-Trailer\1- Original Model\00Main2.k
Data input seq. 2 from file 01a_Trac_Day_2010-0520.k
Data input seq. 15 from file 20control1.k
Last one will be used
Warning -Duplicate keyword: CONTROL_OUTPUT 
  Warning occurs in file C:\Users\salah\Desktop\LS-DYNA\4- Tractor-Trailer\1- Original Model\00Main2.k
Data input seq. 3 from file 01a_Trac_Day_2010-0520.k
Data input seq. 10 from file 20control1.k
Last one will be used
Warning -Duplicate keyword: CONTROL_SHELL 
  Warning occurs in file C:\Users\salah\Desktop\LS-DYNA\4- Tractor-Trailer\1- Original Model\00Main2.k
Data input seq. 4 from file 01a_Trac_Day_2010-0520.k
Data input seq. 14 from file 20control1.k
Last one will be used
Warning -Duplicate keyword: CONTROL_SOLUTION 
  Warning occurs in file C:\Users\salah\Desktop\LS-DYNA\4- Tractor-Trailer\1- Original Model\00Main2.k
Data input seq. 5 from file 01a_Trac_Day_2010-0520.k
Data input seq. 11 from file 20control1.k
Last one will be used
Warning -Duplicate keyword: CONTROL_TERMINATION 
  Warning occurs in file C:\Users\salah\Desktop\LS-DYNA\4- Tractor-Trailer\1- Original Model\00Main2.k
Data input seq. 6 from file 01a_Trac_Day_2010-0520.k
Data input seq. 12 from file 20control1.k
Last one will be used
Warning -Duplicate keyword: DATABASE_DEFORC 
  Warning occurs in file C:\Users\salah\Desktop\LS-DYNA\4- Tractor-Trailer\1- Original Model\00Main2.k
Data input seq. 2 from file 01a_Trac_Day_2010-0520.k
Data input seq. 25 from file 20control1.k
Last one will be used
Warning -Duplicate keyword: DATABASE_ELOUT 
  Warning occurs in file C:\Users\salah\Desktop\LS-DYNA\4- Tractor-Trailer\1- Original Model\00Main2.k
Data input seq. 3 from file 01a_Trac_Day_2010-0520.k
Data input seq. 19 from file 20control1.k
Last one will be used
Warning -Duplicate keyword: DATABASE_GLSTAT 
  Warning occurs in file C:\Users\salah\Desktop\LS-DYNA\4- Tractor-Trailer\1- Original Model\00Main2.k
Data input seq. 4 from file 01a_Trac_Day_2010-0520.k
Data input seq. 20 from file 20control1.k
Last one will be used
Warning -Duplicate keyword: DATABASE_JNTFORC 
  Warning occurs in file C:\Users\salah\Desktop\LS-DYNA\4- Tractor-Trailer\1- Original Model\00Main2.k
Data input seq. 5 from file 01a_Trac_Day_2010-0520.k
Data input seq. 26 from file 20control1.k
Last one will be used
Warning -Duplicate keyword: DATABASE_MATSUM 
  Warning occurs in file C:\Users\salah\Desktop\LS-DYNA\4- Tractor-Trailer\1- Original Model\00Main2.k
Data input seq. 6 from file 01a_Trac_Day_2010-0520.k
Data input seq. 21 from file 20control1.k
Last one will be used
Warning -Duplicate keyword: DATABASE_NODOUT 
  Warning occurs in file C:\Users\salah\Desktop\LS-DYNA\4- Tractor-Trailer\1- Original Model\00Main2.k
Data input seq. 7 from file 01a_Trac_Day_2010-0520.k
Data input seq. 22 from file 20control1.k
Last one will be used
Warning -Duplicate keyword: DATABASE_RCFORC 
  Warning occurs in file C:\Users\salah\Desktop\LS-DYNA\4- Tractor-Trailer\1- Original Model\00Main2.k
Data input seq. 8 from file 01a_Trac_Day_2010-0520.k
Data input seq. 24 from file 20control1.k
Last one will be used
Warning -Duplicate keyword: DATABASE_RWFORC 
  Warning occurs in file C:\Users\salah\Desktop\LS-DYNA\4- Tractor-Trailer\1- Original Model\00Main2.k
Data input seq. 9 from file 01a_Trac_Day_2010-0520.k
Data input seq. 23 from file 20control1.k
Last one will be used
Warning -Duplicate keyword: DATABASE_SLEOUT 
  Warning occurs in file C:\Users\salah\Desktop\LS-DYNA\4- Tractor-Trailer\1- Original Model\00Main2.k
Data input seq. 10 from file 01a_Trac_Day_2010-0520.k
Data input seq. 27 from file 20control1.k
Last one will be used
Warning -Duplicate keyword: DATABASE_BINARY_D3PLOT 
  Warning occurs in file C:\Users\salah\Desktop\LS-DYNA\4- Tractor-Trailer\1- Original Model\00Main2.k
Data input seq. 11 from file 01a_Trac_Day_2010-0520.k
Data input seq. 28 from file 20control1.k
Last one will be used
Warning -Duplicate keyword: DATABASE_BINARY_RUNRSF 
  Warning occurs in file C:\Users\salah\Desktop\LS-DYNA\4- Tractor-Trailer\1- Original Model\00Main2.k
Data input seq. 14 from file 01a_Trac_Day_2010-0520.k
Data input seq. 29 from file 20control1.k
Last one will be used
Warning -Duplicate keyword: DATABASE_EXTENT_BINARY 
  Warning occurs in file C:\Users\salah\Desktop\LS-DYNA\4- Tractor-Trailer\1- Original Model\00Main2.k
Data input seq. 15 from file 01a_Trac_Day_2010-0520.k
Data input seq. 16 from file 01a_Trac_Day_2010-0520.k
Data input seq. 17 from file 01a_Trac_Day_2010-0520.k
Data input seq. 30 from file 20control1.k
Last one will be used
Message 0
