bgstyle fade
"G:\Other computers\My Office Computer\LS-DYNA\3-SUT\2-Modified_Model\01F800Truck.k"
Time to read keyword file = 0.344 seconds
Time to process element data = 0.078 seconds
Finished reading model
Save Config. parameters to file C:\Users\salah\AppData\Roaming\LSTC\LS-PrePost4.8\lsppconf
