$# LS-PrePost command file created by LS-PrePost(R) V4.8.25 - 04Jan2022 -64bit-Window
$# Created on Oct-28-2022 (09:13:22)
openc keyword "G:\Other computers\My Office Computer\LS-DYNA\3-SUT\2-Modified_Model\01F800Truck.k"
