$# LS-DYNA Keyword file created by LS-PrePost(R) V4.8.25 - 04Jan2022
$# Created on Feb-11-2022 (01:23:40)
*KEYWORD
*TITLE
$#                                                                         title
LS-DYNA keyword deck by LS-PrePost
*DATABASE_HISTORY_NODE_SET
$#     id1       id2       id3       id4       id5       id6       id7       id8
   4000003         0         0         0         0         0         0         0
*BOUNDARY_SPC_SET_ID
$#      id                                                               heading
   4000000FixedBottom
$#    nsid       cid      dofx      dofy      dofz     dofrx     dofry     dofrz
   4000002         0         1         1         1         1         1         1
*SET_NODE_LIST_TITLE
FixedBottom
$#     sid       da1       da2       da3       da4    solver      
   4000002       0.0       0.0       0.0       0.0MECH
$#    nid1      nid2      nid3      nid4      nid5      nid6      nid7      nid8
   4003475   4003453   4003525   4003547   4003597   4003619   4005826   4005848
   4005897   4005919   4000000   4000022         0         0         0         0
*CONTACT_FORCE_TRANSDUCER_PENALTY_ID
$#     cid                                                                 title
   400000035ft
$#    ssid      msid     sstyp     mstyp    sboxid    mboxid       spr       mpr
   4000001         0         2         0         0         0         0         2
$#      fs        fd        dc        vc       vdc    penchk        bt        dt
      0.25      0.25       0.0       0.0       1.0         0       0.01.00000E20
$#     sfs       sfm       sst       mst      sfst      sfmt       fsf       vsf
       1.0       1.0       0.0       0.0       1.0       1.0       1.0       1.0
*SET_PART_LIST_TITLE
All Barrier
$#     sid       da1       da2       da3       da4    solver      
   4000001       0.0       0.0       0.0       0.0MECH
$#    pid1      pid2      pid3      pid4      pid5      pid6      pid7      pid8
   4000000   4000001   4000002   4000003         0         0         0         0
*PART
$#                                                                         title
Stirrups
$#     pid     secid       mid     eosid      hgid      grav    adpopt      tmid
   4000000   4000003   4000001         0         0         0         0         0
*SECTION_BEAM_TITLE
Stirrups No.5
$#   secid    elform      shrf   qr/irid       cst     scoor       nsm     naupd
   4000003         1       1.0         2         1       0.0       0.0         0
$#     ts1       ts2       tt1       tt2     nsloc     ntloc     
    15.877    15.877       0.0       0.0       0.0       0.0
*MAT_SIMPLIFIED_JOHNSON_COOK_TITLE
Steel
$#     mid        ro         e        pr        vp  
   40000017.83000E-9  207000.0       0.3       0.0
$#       a         b         n         c    psfail    sigmax    sigsat      epso
  468.8999    1201.8    0.7094     0.0341.00000E171.00000E281.00000E28       1.0
*PART
$#                                                                         title
No.4 Bars
$#     pid     secid       mid     eosid      hgid      grav    adpopt      tmid
   4000001   4000001   4000001         0         0         0         0         0
*SECTION_BEAM_TITLE
Bars No.4
$#   secid    elform      shrf   qr/irid       cst     scoor       nsm     naupd
   4000001         1       1.0         2         1       0.0       0.0         0
$#     ts1       ts2       tt1       tt2     nsloc     ntloc     
      12.7      12.7       0.0       0.0       0.0       0.0
*PART
$#                                                                         title
No.6 Bar
$#     pid     secid       mid     eosid      hgid      grav    adpopt      tmid
   4000002   4000002   4000001         0         0         0         0         0
*SECTION_BEAM_TITLE
Bars No.6
$#   secid    elform      shrf   qr/irid       cst     scoor       nsm     naupd
   4000002         1       1.0         2         1       0.0       0.0         0
$#     ts1       ts2       tt1       tt2     nsloc     ntloc     
     19.04     19.04       0.0       0.0       0.0       0.0
*PART
$#                                                                         title
Concrete Barrier
$#     pid     secid       mid     eosid      hgid      grav    adpopt      tmid
   4000003   4000000   4000000         0         0         0         0         0
*SECTION_SOLID_TITLE
Concrete Barrier
$#   secid    elform       aet    unused    unused    unused    cohoff    unused
   4000000         1         0                                       0          
*MAT_CONCRETE_DAMAGE_REL3_TITLE
Concrete
$#     mid        ro        pr  
   40000002.43000E-9       0.0
$#      ft        a0        a1        a2        b1     omega       a1f   
       0.0    -27.58       0.0       0.0       0.0       0.0       0.0
$# slambda      nout     edrop     rsize       ucf    lcrate  locwidth      npts
       0.0       0.0       0.0    0.0394     145.0         0       0.0       0.0
$# lambda1   lambda2   lambda3   lambda4   lambda5   lambda6   lambda7   lambda8
       0.0       0.0       0.0       0.0       0.0       0.0       0.0       0.0
$#lambda09  lambda10  lambda11  lambda12  lambda13        b3       a0y       a1y
       0.0       0.0       0.0       0.0       0.0       0.0       0.0       0.0
$#    eta1      eta2      eta3      eta4      eta5      eta6      eta7      eta8
       0.0       0.0       0.0       0.0       0.0       0.0       0.0       0.0
$#   eta09     eta10     eta11     eta12     eta13        b2       a2f       a2y
       0.0       0.0       0.0       0.0       0.0       0.0       0.0       0.0
*CONSTRAINED_LAGRANGE_IN_SOLID_TITLE
$#  coupid                                                                 title
         1Steel and Concrete
$#   slave    master     sstyp     mstyp     nquad     ctype     direc     mcoup
   4000000   4000003         0         1         0         2         1         0
$#   start       end      pfac      fric    frcmin      norm   normtyp      damp
       0.01.00000E10       0.1       0.0       0.5         0         0       0.0
$#      cq      hmin      hmax     ileak     pleak   lcidpor     nvent  blockage
       0.0       0.0       0.0         0       0.1         0         0         0
*ELEMENT_SOLID
$#   eid     pid      n1      n2      n3      n4      n5      n6      n7      n8
 4003269 4000003 4000086 4000197 4000856 4000308 4002466 4002686 4002587 4002465
 4003270 4000003 4002466 4002686 4002587 4002465 4000529 4001822 4001723 4000528
 4003271 4000003 4000304 4000857 4000090 4000085 4002461 4002588 4000749 4000416
 4003272 4000003 4002461 4002588 4000749 4000416 4000524 4001724 4000309 4000087
 4003273 4000003 4000305 4000858 4000857 4000304 4002462 4002589 4002588 4002461
 4003274 4000003 4002462 4002589 4002588 4002461 4000525 4001725 4001724 4000524
 4003275 4000003 4000306 4000859 4000858 4000305 4002463 4002617 4002589 4002462
 4003276 4000003 4002463 4002617 4002589 4002462 4000526 4001753 4001725 4000525
 4003277 4000003 4000308 4000856 4000860 4000307 4002465 4002587 4002611 4002464
 4003278 4000003 4002465 4002587 4002611 4002464 4000528 4001723 4001747 4000527
 4003279 4000003 4000307 4000860 4000859 4000306 4002464 4002611 4002617 4002463
 4003280 4000003 4002464 4002611 4002617 4002463 4000527 4001747 4001753 4000526
 4003281 4000003 4000198 4000861 4000856 4000197 4002688 4002613 4002587 4002686
 4003282 4000003 4002688 4002613 4002587 4002686 4001824 4001749 4001723 4001822
 4003283 4000003 4000090 4000857 4000862 4000091 4000749 4002588 4002590 4000750
 4003284 4000003 4000749 4002588 4002590 4000750 4000309 4001724 4001726 4000310
 4003285 4000003 4000199 4000863 4000861 4000198 4002695 4002607 4002613 4002688
 4003286 4000003 4002695 4002607 4002613 4002688 4001831 4001743 4001749 4001824
 4003287 4000003 4000091 4000862 4000864 4000092 4000750 4002590 4002595 4000751
 4003288 4000003 4000750 4002590 4002595 4000751 4000310 4001726 4001731 4000311
$ ... 1906 like lines cut
*ELEMENT_BEAM
$#   eid     pid      n1      n2      n3     rt1     rr1     rt2     rr2   local
 4000000 4000000 4000000 4000001       0       0       0       0       0       2
 4000001 4000000 4000001 4000002       0       0       0       0       0       2
 4000002 4000000 4000002 4000003       0       0       0       0       0       2
 4000003 4000000 4000003 4000004       0       0       0       0       0       2
 4000004 4000000 4000004 4000005       0       0       0       0       0       2
 4000005 4000000 4000005 4000006       0       0       0       0       0       2
 4000006 4000000 4000006 4000007       0       0       0       0       0       2
 4000007 4000000 4000007 4000008       0       0       0       0       0       2
 4000008 4000000 4000008 4000009       0       0       0       0       0       2
 4000009 4000000 4000009 4000010       0       0       0       0       0       2
 4000010 4000000 4000010 4000011       0       0       0       0       0       2
 4000011 4000000 4000011 4000012       0       0       0       0       0       2
 4000012 4000000 4000012 4000013       0       0       0       0       0       2
 4000013 4000000 4000013 4000014       0       0       0       0       0       2
 4000014 4000000 4000014 4000015       0       0       0       0       0       2
 4000015 4000000 4000015 4000016       0       0       0       0       0       2
 4000016 4000000 4000016 4000017       0       0       0       0       0       2
 4000017 4000000 4000017 4000018       0       0       0       0       0       2
 4000018 4000000 4000018 4000019       0       0       0       0       0       2
 4000019 4000000 4000019 4000020       0       0       0       0       0       2
$ ... 3249 like lines cut
*NODE
$#   nid               x               y               z      tc      rc  
 4000000            46.0         -328.66             0.0       0       0
 4000001            46.0         -328.66        209.2394       0       0
 4000002            46.0         -328.66        348.7323       0       0
 4000003            46.0         -328.66        401.0421       0       0
 4000004            46.0         -328.66         403.214       0       0
 4000005            46.0        -323.219        413.6344       0       0
 4000006            46.0       -314.1989        424.1441       0       0
 4000007            46.0        -303.005          432.07       0       0
 4000008            46.0       -290.8029        436.9034       0       0
 4000009            46.0        -278.765        438.7473       0       0
 4000010            46.0        -264.358        437.5175       0       0
 4000011            46.0       -251.0851        432.8337       0       0
 4000012            46.0       -239.9861        425.5156       0       0
 4000013            46.0        -231.545        416.6457       0       0
 4000014            46.0        -224.677        404.9462       0       0
 4000015            46.0        -218.565        389.5887       0       0
 4000016        46.00049        -210.464        369.1222       0       0
 4000017            46.0        -199.662        341.8334       0       0
 4000018        45.99951        -185.261        305.4484       0       0
 4000019            46.0       -163.6581        250.8709       0       0
$ ... 6532 like lines cut
*SET_NODE_LIST_TITLE
FixedRightSide
$#     sid       da1       da2       da3       da4    solver      
   4000000       0.0       0.0       0.0       0.0MECH
$#    nid1      nid2      nid3      nid4      nid5      nid6      nid7      nid8
   4000071   4000073   4000075   4000083   4000077   4000079   4000081         0
*SET_NODE_LIST_TITLE
FixedLeftSide
$#     sid       da1       da2       da3       da4    solver      
   4000001       0.0       0.0       0.0       0.0MECH
$#    nid1      nid2      nid3      nid4      nid5      nid6      nid7      nid8
   4006074   4006181   4006288   4006395   4006502   4006609   4006716         0
*SET_NODE_LIST_TITLE
DisplacementNodes
$#     sid       da1       da2       da3       da4    solver      
   4000003       0.0       0.0       0.0       0.0MECH
$#    nid1      nid2      nid3      nid4      nid5      nid6      nid7      nid8
   4000087   4000309   4000310   4000311   4000312   4000313   4000314   4000315
   4000316   4000317   4000318   4000319   4000320   4000321   4000322   4000323
   4000324   4000325   4000326   4000327   4000328   4000329   4000330   4000331
   4000332   4000333   4000334   4000335   4000336   4000337   4000338   4000339
   4000340   4000341   4000342   4000343   4000344   4000345   4000346   4000347
   4000348   4000349   4000350   4000351   4000352   4000353   4000354   4000355
   4000356   4000357   4000358   4000359   4000360   4000361   4000362   4000363
   4000364   4000365   4000366   4000367   4000368   4000369   4000370   4000371
   4000372   4000373   4000374   4000375   4000376   4000377   4000378   4000379
   4000380   4000381   4000382   4000383   4000384   4000385   4000386   4000387
   4000388   4000389   4000390   4000391   4000392   4000393   4000394   4000395
   4000396   4000397   4000398   4000399   4000400   4000401   4000402   4000403
   4000404   4000405   4000406   4000407   4000408   4000409   4000410   4000411
   4000412   4000413   4000414   4000415         0         0         0         0
*SET_PART_LIST_TITLE
Reinforcement
$#     sid       da1       da2       da3       da4    solver      
   4000000       0.0       0.0       0.0       0.0MECH
$#    pid1      pid2      pid3      pid4      pid5      pid6      pid7      pid8
   4000000   4000001   4000002         0         0         0         0         0
*END
