*KEYWORD
*PART
$# title
AirRide Spring Discrete Element                                                
$#     pid     secid       mid     eosid      hgid      grav    adpopt      tmid
        73        73        73
*SECTION_DISCRETE
$#   secid       dro        kd        v0        cl        fd
        73
$#     cdl       tdl
     0.000     0.000
*MAT_SPRING_NONLINEAR_ELASTIC
$#     mid       lcd       lcr
        73        73
*PART
$# title
AirRide Damper Discrete Element                                                
$#     pid     secid       mid     eosid      hgid      grav    adpopt      tmid
        74        74        74
*SECTION_DISCRETE
$#   secid       dro        kd        v0        cl        fd
        74
$#     cdl       tdl
     0.000     0.000
*MAT_SPRING_MAXWELL
$#     mid        k0        ki      beta        tc        fc      copt
        74      44.0 1.0000E-4  0.166667
*DEFINE_CURVE
$$
$$  Convert from 60 psi to 45 psi per data graph
$$  which corresponds to 3000/4026 lbs spring-set ratio
$$  New scale factor will be original sfo of 4.448 
$$  times 0.745 = 3.31446
$$  Also, k0 = 44.0 and beta = 0.166667
$$
$ quasi-static spring rate of airide suspension
$#    lcid      sidr       sfa       sfo      offa      offo    dattyp
        73         0  25.40000   3.31446
$#                a1                  o1
-3.00528,-6674.83643
-2.90528,-6505.88867
-2.80528,-6352.878665
-2.70528,-6215.61084
-2.60528,-6082.934085
-2.50528,-5960.555175
-2.40528,-5839.00586
-2.30528,-5727.34204
-2.20528,-5619.204345
-2.10528,-5515.48413
-2.00528,-5417.895015
-1.90528,-5323.980715
-1.80528,-5238.84961
-1.70528,-5155.849855
-1.60528,-5073.102535
-1.50528,-4994.553955
-1.40528,-4918.53198
-1.30528,-4843.84717
-1.20528,-4770.539065
-1.10528,-4699.518555
$ ... 41 like lines cut
*END
