$# LS-DYNA Keyword file created by LS-PrePost(R) V4.7.7 - 17Feb2020
$# Created on Jan-10-2022 (15:51:25)
*KEYWORD
*TITLE
$#                                                                         title
LS-DYNA keyword deck by LS-PrePost
*BOUNDARY_SPC_SET
$#    nsid       cid      dofx      dofy      dofz     dofrx     dofry     dofrz
   4000002         0         1         1         1         1         1         1
*SET_NODE_LIST_TITLE
Dowels
$#     sid       da1       da2       da3       da4    solver      
   4000002       0.0       0.0       0.0       0.0MECH
$#    nid1      nid2      nid3      nid4      nid5      nid6      nid7      nid8
   4012163   4012141   4000001   4009117   4009189   4009261   4009333   4009405
   4009477   4009549   4009621   4009693   4009765   4009837   4009909   4009981
   4010053   4010125   4010197   4010269   4010341   4010413   4010485   4010557
   4010629   4010701   4010773   4010845   4010917   4010989   4011061   4011133
   4011205   4011277   4011349   4011421   4011493   4011565   4011637   4011709
   4011781   4011853   4011925   4011997   4012069   4012213   4012285   4012357
   4012429   4012501   4012573   4012645   4012717   4012789   4012861   4012933
   4013005   4013077   4013149   4013221   4013293   4013365   4013437   4013509
   4013581   4013653   4013725   4013797   4013869   4013941   4014013   4014085
   4014157   4014229   4014301   4014373   4014445   4014517   4014589   4014661
   4014733   4014805   4014877   4014949   4015021   4015093   4015165   4015237
   4015309   4015381   4015453   4015525   4015597   4015669   4015741   4015813
   4015885   4015957   4016029   4016101   4016173   4000023   4009139   4009211
   4009283   4009355   4009427   4009499   4009571   4009643   4009715   4009787
   4009859   4009931   4010003   4010075   4010147   4010219   4010291   4010363
   4010435   4010507   4010579   4010651   4010723   4010795   4010867   4010939
   4011011   4011083   4011155   4011227   4011299   4011371   4011443   4011515
   4011587   4011659   4011731   4011803   4011875   4011947   4012019   4012091
   4012235   4012307   4012379   4012451   4012523   4012595   4012667   4012739
   4012811   4012883   4012955   4013027   4013099   4013171   4013243   4013315
$ ... 7 like lines cut
*PART
$#                                                                         title
Stirrups
$#     pid     secid       mid     eosid      hgid      grav    adpopt      tmid
   4000001   4000004   4000002         0         0         0         0         0
*SECTION_BEAM_TITLE
Stirrups No.5
$#   secid    elform      shrf   qr/irid       cst     scoor       nsm     naupd
   4000004         3       1.0         2         1       0.0       0.0         0
$#       a     rampt    stress      
     198.0       0.0       0.0
*MAT_SIMPLIFIED_JOHNSON_COOK_TITLE
Steel
$#     mid        ro         e        pr        vp  
   40000027.83000E-9  207000.0       0.3       0.0
$#       a         b         n         c    psfail    sigmax    sigsat      epso
  468.8999    1201.8    0.7094     0.0341.00000E171.00000E281.00000E28       1.0
*PART
$#                                                                         title
No.4 Bars
$#     pid     secid       mid     eosid      hgid      grav    adpopt      tmid
   4000002   4000002   4000002         0         0         0         0         0
*SECTION_BEAM_TITLE
Bars No.4
$#   secid    elform      shrf   qr/irid       cst     scoor       nsm     naupd
   4000002         3       1.0         2         1       0.0       0.0         0
$#       a     rampt    stress      
    126.67       0.0       0.0
*PART
$#                                                                         title
No.6 Bar
$#     pid     secid       mid     eosid      hgid      grav    adpopt      tmid
   4000003   4000003   4000002         0         0         0         0         0
*SECTION_BEAM_TITLE
Bars No.6
$#   secid    elform      shrf   qr/irid       cst     scoor       nsm     naupd
   4000003         3       1.0         2         1       0.0       0.0         0
$#       a     rampt    stress      
     285.0       0.0       0.0
*PART
$#                                                                         title
Concrete Barrier
$#     pid     secid       mid     eosid      hgid      grav    adpopt      tmid
   4000004   4000001   4000001         0         0         0         0         0
*SECTION_SOLID_TITLE
Concrete Barrier
$#   secid    elform       aet   
   4000001         1         0
*MAT_CONCRETE_DAMAGE_REL3_TITLE
Concrete
$#     mid        ro        pr  
   40000012.43000E-9       0.0
$#      ft        a0        a1        a2        b1     omega       a1f   
       0.0     -45.4       0.0       0.0       0.0       0.0       0.0
$# slambda      nout     edrop     rsize       ucf    lcrate  locwidth      npts
       0.0       0.0       0.0    0.0394     145.0         0       0.0       0.0
$# lambda1   lambda2   lambda3   lambda4   lambda5   lambda6   lambda7   lambda8
       0.0       0.0       0.0       0.0       0.0       0.0       0.0       0.0
$#lambda09  lambda10  lambda11  lambda12  lambda13        b3       a0y       a1y
       0.0       0.0       0.0       0.0       0.0       0.0       0.0       0.0
$#    eta1      eta2      eta3      eta4      eta5      eta6      eta7      eta8
       0.0       0.0       0.0       0.0       0.0       0.0       0.0       0.0
$#   eta09     eta10     eta11     eta12     eta13        b2       a2f       a2y
       0.0       0.0       0.0       0.0       0.0       0.0       0.0       0.0
*CONSTRAINED_LAGRANGE_IN_SOLID_TITLE
$#  coupid                                                                 title
         1Steel and Concrete
$#   slave    master     sstyp     mstyp     nquad     ctype     direc     mcoup
   4000001   4000004         0         1         0         2         1         0
$#   start       end      pfac      fric    frcmin      norm   normtyp      damp
       0.01.00000E10       0.1       0.0       0.5         0         0       0.0
$#      cq      hmin      hmax     ileak     pleak   lcidpor     nvent  blockage
       0.0       0.0       0.0         0       0.1         0         0         0
*SET_NODE_LIST_TITLE
Fixed Nodes
$#     sid       da1       da2       da3       da4    solver      
   4000001       0.0       0.0       0.0       0.0MECH
$#    nid1      nid2      nid3      nid4      nid5      nid6      nid7      nid8
   4000001   4000023   4000093   4000094   4000095   4000096   4001006   4001007
   4001008   4001009   4001010   4001011   4001012   4001013   4001014   4001015
   4001016   4001017   4001018   4001019   4001020   4001021   4001022   4001023
   4001024   4001025   4001026   4001027   4001028   4001029   4001030   4001031
   4001032   4001033   4001034   4001035   4001036   4001037   4001038   4001039
   4001040   4001041   4001042   4001043   4001044   4001045   4001046   4001047
   4001048   4001049   4001050   4001051   4001052   4001053   4001054   4001055
   4001056   4001057   4001058   4001059   4001060   4001061   4001062   4001063
   4001064   4001065   4001066   4001067   4001068   4001069   4001070   4001071
   4001072   4001073   4001074   4001075   4001076   4001077   4001078   4001079
   4001080   4001081   4001082   4001083   4001084   4001085   4001086   4001087
   4001088   4001089   4001090   4001091   4001092   4001093   4001094   4001095
   4001096   4001097   4001098   4001099   4001100   4001101   4001102   4001103
   4001104   4001105   4001106   4001107   4001108   4001109   4001110   4001111
   4001112   4001113   4001114   4001115   4001116   4001117   4001118   4001119
   4001120   4001121   4001122   4001123   4001124   4001125   4001126   4001127
   4001128   4001129   4001130   4001131   4001132   4001133   4001134   4001135
   4001136   4001137   4001138   4001139   4001140   4001141   4001142   4001143
   4001144   4001145   4001146   4001147   4001148   4001149   4001150   4001151
   4001152   4001153   4001154   4001155   4001156   4001157   4001158   4001159
$ ... 94 like lines cut
*SET_PART_LIST_TITLE
Reinforcement
$#     sid       da1       da2       da3       da4    solver      
   4000001       0.0       0.0       0.0       0.0MECH
$#    pid1      pid2      pid3      pid4      pid5      pid6      pid7      pid8
   4000001   4000002   4000003         0         0         0         0         0
*ELEMENT_SOLID
$#   eid     pid      n1      n2      n3      n4      n5      n6      n7      n8
 4000077 4000004 4000704 4002224 4000694 4000090 4006721 4007128 4007085 4006722
 4000078 4000004 4006721 4007128 4007085 4006722 4001317 4004720 4004677 4001318
 4000079 4000004 4000089 4000396 4002225 4000699 4006714 4007321 4007086 4006713
 4000080 4000004 4006714 4007321 4007086 4006713 4001310 4004913 4004678 4001309
 4000081 4000004 4000088 4000395 4002226 4000700 4001005 4002223 4007112 4006717
 4000082 4000004 4001005 4002223 4007112 4006717 4000092 4001003 4004704 4001313
 4000083 4000004 4000700 4002226 4002227 4000701 4006717 4007112 4007088 4006718
 4000084 4000004 4006717 4007112 4007088 4006718 4001313 4004704 4004680 4001314
 4000085 4000004 4000701 4002227 4002228 4000702 4006718 4007088 4007125 4006719
 4000086 4000004 4006718 4007088 4007125 4006719 4001314 4004680 4004717 4001315
 4000087 4000004 4000695 4002229 4000097 4000087 4006709 4007090 4001925 4001004
 4000088 4000004 4006709 4007090 4001925 4001004 4001305 4004682 4000705 4000091
 4000089 4000004 4000696 4002230 4002229 4000695 4006710 4007091 4007090 4006709
 4000090 4000004 4006710 4007091 4007090 4006709 4001306 4004683 4004682 4001305
 4000091 4000004 4000697 4002231 4002230 4000696 4006711 4007185 4007091 4006710
 4000092 4000004 4006711 4007185 4007091 4006710 4001307 4004777 4004683 4001306
 4000093 4000004 4000703 4002232 4002224 4000704 4006720 4007130 4007128 4006721
 4000094 4000004 4006720 4007130 4007128 4006721 4001316 4004722 4004720 4001317
 4000095 4000004 4000702 4002228 4002232 4000703 4006719 4007125 4007130 4006720
 4000096 4000004 4006719 4007125 4007130 4006720 4001315 4004717 4004722 4001316
$ ... 5380 like lines cut
*ELEMENT_BEAM
$#   eid     pid      n1      n2      n3     rt1     rr1     rt2     rr2   local
 4000001 4000001 4000001 4000002       0       0       0       0       0       2
 4000002 4000001 4000002 4000003       0       0       0       0       0       2
 4000003 4000001 4000003 4000004       0       0       0       0       0       2
 4000004 4000001 4000004 4000005       0       0       0       0       0       2
 4000005 4000001 4000005 4000006       0       0       0       0       0       2
 4000006 4000001 4000006 4000007       0       0       0       0       0       2
 4000007 4000001 4000007 4000008       0       0       0       0       0       2
 4000008 4000001 4000008 4000009       0       0       0       0       0       2
 4000009 4000001 4000009 4000010       0       0       0       0       0       2
 4000010 4000001 4000010 4000011       0       0       0       0       0       2
 4000011 4000001 4000011 4000012       0       0       0       0       0       2
 4000012 4000001 4000012 4000013       0       0       0       0       0       2
 4000013 4000001 4000013 4000014       0       0       0       0       0       2
 4000014 4000001 4000014 4000015       0       0       0       0       0       2
 4000015 4000001 4000015 4000016       0       0       0       0       0       2
 4000016 4000001 4000016 4000017       0       0       0       0       0       2
 4000017 4000001 4000017 4000018       0       0       0       0       0       2
 4000018 4000001 4000018 4000019       0       0       0       0       0       2
 4000019 4000001 4000019 4000020       0       0       0       0       0       2
 4000020 4000001 4000020 4000021       0       0       0       0       0       2
$ ... 6987 like lines cut
*NODE
$#   nid               x               y               z      tc      rc  
 4000001            46.0         -1419.0             0.0       0       0
 4000002            46.0         -1419.0        209.2394       0       0
 4000003            46.0         -1419.0        348.7323       0       0
 4000004            46.0         -1419.0        401.0421       0       0
 4000005            46.0         -1419.0         403.214       0       0
 4000006            46.0       -1413.559        413.6344       0       0
 4000007            46.0       -1404.539        424.1441       0       0
 4000008            46.0       -1393.345          432.07       0       0
 4000009            46.0       -1381.143        436.9034       0       0
 4000010            46.0       -1369.105        438.7473       0       0
 4000011            46.0       -1354.698        437.5175       0       0
 4000012            46.0       -1341.425        432.8337       0       0
 4000013            46.0       -1330.326        425.5156       0       0
 4000014            46.0       -1321.885        416.6457       0       0
 4000015            46.0       -1315.017        404.9462       0       0
 4000016            46.0       -1308.905        389.5887       0       0
 4000017        46.00049       -1300.804        369.1222       0       0
 4000018            46.0       -1290.002        341.8334       0       0
 4000019        45.99951       -1275.601        305.4484       0       0
 4000020            46.0       -1253.998        250.8709       0       0
$ ... 16224 like lines cut
*END
