$# LS-PrePost command file created by LS-PrePost(R) V4.8.25 - 04Jan2022 -64bit-Window
$# Created on Apr-4-2022 (11:30:11)
openc keyword "C:\Users\salah\Desktop\home\salahatf\LS-DYNA\4-TST\2-Modified_Model\01TractorSemi-Trailer.k"
Message 1
Message 0
isometric x
