*KEYWORD
*MAT_SPRING_NONLINEAR_ELASTIC
$#     mid       lcd       lcr
   3000000   3000001
*MAT_SPRING_MAXWELL
$#     mid        k0        ki      beta        tc        fc      copt
   3000001      55.1 1.0000E-4      0.18
*DEFINE_CURVE
$ quasi-static spring rate of airide suspension
$#    lcid      sidr       sfa       sfo      offa      offo    dattyp
   3000001
$#                a1                  o1
-76.18818392,-33117.09172
-75.93320348,-33054.25372
-75.67925174,-32991.86532
-75.42559718,-32929.74477
-75.17253698,-32867.96332
-74.91757432,-32805.9124
-74.66398072,-32744.38832
-74.41085194,-32683.16909
-74.15656746,-32621.86305
-73.9022652,-32560.74538
-73.64965204,-32500.22388
-73.39282502,-32438.88665
-73.13991468,-32378.67529
-72.88689766,-32318.62712
-72.63358092,-32258.69626
-72.38095506,-32199.11611
-72.12630228,-32139.24665
-71.87046078,-32079.28798
-71.6167224,-32020.01002
-71.3633828,-31961.01128
$ ... 579 like lines cut
*END
