$# LS-PrePost command file created by LS-PrePost(R) V4.8.25 - 04Jan2022 -64bit-Window
$# Created on Oct-28-2022 (09:13:38)
openc keyword "G:\Other computers\My Office Computer\LS-DYNA\4-TST\2-Modified_Model\TL5CMB2\0TractorSemi-Trailer.k"
