bgstyle fade
"G:\Other computers\My Office Computer\LS-DYNA\4-TST\2-Modified_Model\TL5CMB2\0TractorSemi-Trailer.k"
Time to read keyword file = 2.469 seconds
Time to process element data = 0.922 seconds
Finished reading model
Save Config. parameters to file C:\Users\salah\AppData\Roaming\LSTC\LS-PrePost4.8\lsppconf
