$# LS-PrePost command file created by LS-PrePost(R) V4.8.25 - 04Jan2022 -64bit-Window
$# Created on Oct-28-2022 (09:12:31)
openc keyword "G:\Other computers\My Office Computer\LS-DYNA\1-Barriers\3-Segmented\02JersyBarrier45m.k"
isometric x
