bgstyle fade
"G:\Other computers\My Office Computer\LS-DYNA\1-Barriers\3-Segmented\02JersyBarrier45m.k"
Time to read keyword file = 0.453 seconds
Time to process element data = 0.109 seconds
Finished reading model
zoomhere 0.029577 0.026277 0.479011;
zoomhere 0.028873 0.030657 0.598764;
zoomhere 0.028873 0.030657 0.748455;
zoomhere 0.028873 0.033577 0.935569;
zoomhere 0.026056 0.030657 0.748455;
zoomhere 0.025352 0.027737 0.598764;
zoomhere 0.024648 0.024818 0.479011;
zoomhere 0.023239 0.020438 0.383209;
zoomhere 0.018310 0.005839 0.306567;
zoomhere 0.018310 0.005839 0.245254;
zoomhere 0.018310 0.005839 0.196203;
zoomhere 0.018310 0.005839 0.156962;
zoomhere -0.027465 -0.013139 0.125570;
zoomhere -0.045775 -0.024818 0.100456;
zoomhere -0.060563 -0.035036 0.125570;
zoomhere -0.034507 -0.027737 0.100456;
zoomhere -0.053521 -0.046715 0.080365;
quat -0.029498 0.520229 0.841984 0.139831;
quat -0.134800 0.572647 0.806100 0.064082;
zoomhere -0.010563 0.121168 0.064292;
zoomhere -0.003521 0.113869 0.051434;
zoomhere 0.005634 0.105109 0.041147;
zoomhere 0.032394 0.077372 0.032918;
zoomhere 0.009859 0.056934 0.026334;
zoomhere 0.004930 0.051095 0.021067;
zoomhere 0.001408 0.046715 0.016854;
zoomhere -0.007042 0.027737 0.021067;
zoomhere -0.007042 0.027737 0.026334;
zoomhere -0.006338 0.021898 0.032918;
zoomhere -0.006338 0.021898 0.041147;
zoomhere -0.006338 0.021898 0.051434;
zoomhere -0.006338 0.021898 0.064292;
zoomhere -0.006338 0.021898 0.080365;
zoomhere 0.006338 -0.007299 0.100456;
zoomhere 0.006338 -0.007299 0.125570;
zoomhere 0.006338 -0.007299 0.156962;
zoomhere 0.006338 -0.007299 0.196203;
isometric x
Save Config. parameters to file C:\Users\salah\AppData\Roaming\LSTC\LS-PrePost4.8\lsppconf
